Circuit: * C:\Users\veron\OneDrive - USherbrooke\S4\APP3\S4iAPP3_prob_E20\Premier_essai\add3b_test.asc

WARNING: Node X1:X5:N001 is floating.
WARNING: Node X1:X5:N002 is floating.
WARNING: Node X1:X6:N001 is floating.
WARNING: Node X1:X6:N002 is floating.
WARNING: Node X1:X7:N001 is floating.
WARNING: Node X1:X7:N002 is floating.
WARNING: Node X1:X9:N001 is floating.
WARNING: Node X1:X9:N002 is floating.
WARNING: Node X1:X10:N001 is floating.
WARNING: Node X1:X10:N002 is floating.
WARNING: Node X1:X14:N001 is floating.
WARNING: Node X1:X14:N002 is floating.
WARNING: Node X1:X15:N001 is floating.
WARNING: Node X1:X15:N002 is floating.
WARNING: Node X1:X16:N001 is floating.
WARNING: Node X1:X16:N002 is floating.
WARNING: Node X1:X18:N001 is floating.
WARNING: Node X1:X18:N002 is floating.
WARNING: Node X1:X19:N001 is floating.
WARNING: Node X1:X19:N002 is floating.

WARNING: Less than two connections to node SEL.  This node is used by VSEL.
WARNING: Less than two connections to node X1:X5:N001.  This node is used by M:X1:X5:3.
WARNING: Less than two connections to node X1:X5:N002.  This node is used by M:X1:X5:4.
WARNING: Less than two connections to node X1:X6:N001.  This node is used by M:X1:X6:3.
WARNING: Less than two connections to node X1:X6:N002.  This node is used by M:X1:X6:4.
WARNING: Less than two connections to node X1:X7:N001.  This node is used by M:X1:X7:3.
WARNING: Less than two connections to node X1:X7:N002.  This node is used by M:X1:X7:4.
WARNING: Less than two connections to node X1:X9:N001.  This node is used by M:X1:X9:3.
WARNING: Less than two connections to node X1:X9:N002.  This node is used by M:X1:X9:4.
WARNING: Less than two connections to node X1:X10:N001.  This node is used by M:X1:X10:3.
WARNING: Less than two connections to node X1:X10:N002.  This node is used by M:X1:X10:4.
WARNING: Less than two connections to node X1:X14:N001.  This node is used by M:X1:X14:3.
WARNING: Less than two connections to node X1:X14:N002.  This node is used by M:X1:X14:4.
WARNING: Less than two connections to node X1:X15:N001.  This node is used by M:X1:X15:3.
WARNING: Less than two connections to node X1:X15:N002.  This node is used by M:X1:X15:4.
WARNING: Less than two connections to node X1:X16:N001.  This node is used by M:X1:X16:3.
WARNING: Less than two connections to node X1:X16:N002.  This node is used by M:X1:X16:4.
WARNING: Less than two connections to node X1:X18:N001.  This node is used by M:X1:X18:3.
WARNING: Less than two connections to node X1:X18:N002.  This node is used by M:X1:X18:4.
WARNING: Less than two connections to node X1:X19:N001.  This node is used by M:X1:X19:3.
WARNING: Less than two connections to node X1:X19:N002.  This node is used by M:X1:X19:4.

Date: Mon Jun 06 16:28:47 2022
Total elapsed time: 0.216 seconds.

tnom = 27
temp = 27
method = trap
totiter = 255
traniter = 0
tranpoints = 0
accept = 0
rejected = 0
matrix size = 106
fillins = 104
solver = Normal

