Circuit: * C:\Users\veron\OneDrive\Documents\GitHub\S4_APP3\En cours\add3b_test.asc

WARNING: Node X1:X1:X11:N001 is floating.
WARNING: Node X1:X1:X11:N002 is floating.
WARNING: Node X1:X1:X12:N001 is floating.
WARNING: Node X1:X1:X12:N002 is floating.
WARNING: Node X1:X1:X13:N001 is floating.
WARNING: Node X1:X1:X13:N002 is floating.
WARNING: Node X1:X1:X17:N001 is floating.
WARNING: Node X1:X1:X18:N001 is floating.
WARNING: Node X1:X2:X11:N001 is floating.
WARNING: Node X1:X2:X11:N002 is floating.
WARNING: Node X1:X2:X12:N001 is floating.
WARNING: Node X1:X2:X12:N002 is floating.
WARNING: Node X1:X2:X13:N001 is floating.
WARNING: Node X1:X2:X13:N002 is floating.
WARNING: Node X1:X2:X17:N001 is floating.
WARNING: Node X1:X2:X18:N001 is floating.
WARNING: Node X1:X3:X11:N001 is floating.
WARNING: Node X1:X3:X11:N002 is floating.
WARNING: Node X1:X3:X12:N001 is floating.
WARNING: Node X1:X3:X12:N002 is floating.
WARNING: Node X1:X3:X13:N001 is floating.
WARNING: Node X1:X3:X13:N002 is floating.
WARNING: Node X1:X3:X17:N001 is floating.
WARNING: Node X1:X3:X18:N001 is floating.

WARNING: Less than two connections to node SEL.  This node is used by VSEL.
WARNING: Less than two connections to node X1:X1:X11:N001.  This node is used by M:X1:X1:X11:3.
WARNING: Less than two connections to node X1:X1:X11:N002.  This node is used by M:X1:X1:X11:4.
WARNING: Less than two connections to node X1:X1:X12:N001.  This node is used by M:X1:X1:X12:3.
WARNING: Less than two connections to node X1:X1:X12:N002.  This node is used by M:X1:X1:X12:4.
WARNING: Less than two connections to node X1:X1:X13:N001.  This node is used by M:X1:X1:X13:3.
WARNING: Less than two connections to node X1:X1:X13:N002.  This node is used by M:X1:X1:X13:4.
WARNING: Less than two connections to node X1:X1:X17:N001.  This node is used by M:X1:X1:X17:1.
WARNING: Less than two connections to node X1:X1:X18:N001.  This node is used by M:X1:X1:X18:1.
WARNING: Less than two connections to node X1:X2:X11:N001.  This node is used by M:X1:X2:X11:3.
WARNING: Less than two connections to node X1:X2:X11:N002.  This node is used by M:X1:X2:X11:4.
WARNING: Less than two connections to node X1:X2:X12:N001.  This node is used by M:X1:X2:X12:3.
WARNING: Less than two connections to node X1:X2:X12:N002.  This node is used by M:X1:X2:X12:4.
WARNING: Less than two connections to node X1:X2:X13:N001.  This node is used by M:X1:X2:X13:3.
WARNING: Less than two connections to node X1:X2:X13:N002.  This node is used by M:X1:X2:X13:4.
WARNING: Less than two connections to node X1:X2:X17:N001.  This node is used by M:X1:X2:X17:1.
WARNING: Less than two connections to node X1:X2:X18:N001.  This node is used by M:X1:X2:X18:1.
WARNING: Less than two connections to node X1:X3:X11:N001.  This node is used by M:X1:X3:X11:3.
WARNING: Less than two connections to node X1:X3:X11:N002.  This node is used by M:X1:X3:X11:4.
WARNING: Less than two connections to node X1:X3:X12:N001.  This node is used by M:X1:X3:X12:3.
WARNING: Less than two connections to node X1:X3:X12:N002.  This node is used by M:X1:X3:X12:4.
WARNING: Less than two connections to node X1:X3:X13:N001.  This node is used by M:X1:X3:X13:3.
WARNING: Less than two connections to node X1:X3:X13:N002.  This node is used by M:X1:X3:X13:4.
WARNING: Less than two connections to node X1:X3:X17:N001.  This node is used by M:X1:X3:X17:1.
WARNING: Less than two connections to node X1:X3:X18:N001.  This node is used by M:X1:X3:X18:1.
Direct Newton iteration for .op point succeeded.

Date: Wed Jun 08 11:47:01 2022
Total elapsed time: 1.125 seconds.

tnom = 27
temp = 27
method = modified trap
totiter = 7220
traniter = 7180
tranpoints = 2776
accept = 2535
rejected = 241
matrix size = 133
fillins = 190
solver = Normal
Thread vector: 282.8/75.1[8] 28.6/12.8[8] 8.5/4.9[6] 0.9/3.2[1]  2592/500
Matrix Compiler1: 24.71 KB object code size  8.3/4.7/[2.3]
Matrix Compiler2: 19.47 KB object code size  3.1/5.4/[0.9]

