Circuit: * C:\Users\veron\OneDrive\Documents\GitHub\S4_APP3\En cours\add3b_test.asc

WARNING: Node X1:X1:X3:N001 is floating.
WARNING: Node X1:X1:X3:N002 is floating.
WARNING: Node X1:X1:X4:N001 is floating.
WARNING: Node X1:X1:X4:N002 is floating.
WARNING: Node X1:X1:X8:N001 is floating.
WARNING: Node X1:X1:X11:N001 is floating.
WARNING: Node X1:X1:X11:N002 is floating.
WARNING: Node X1:X1:X12:N001 is floating.
WARNING: Node X1:X1:X12:N002 is floating.
WARNING: Node X1:X1:X13:N001 is floating.
WARNING: Node X1:X1:X13:N002 is floating.
WARNING: Node X1:X1:X17:N001 is floating.
WARNING: Node X1:X1:X18:N001 is floating.
WARNING: Node X1:X2:X3:N001 is floating.
WARNING: Node X1:X2:X3:N002 is floating.
WARNING: Node X1:X2:X4:N001 is floating.
WARNING: Node X1:X2:X4:N002 is floating.
WARNING: Node X1:X2:X8:N001 is floating.
WARNING: Node X1:X2:X11:N001 is floating.
WARNING: Node X1:X2:X11:N002 is floating.
WARNING: Node X1:X2:X12:N001 is floating.
WARNING: Node X1:X2:X12:N002 is floating.
WARNING: Node X1:X2:X13:N001 is floating.
WARNING: Node X1:X2:X13:N002 is floating.
WARNING: Node X1:X2:X17:N001 is floating.
WARNING: Node X1:X2:X18:N001 is floating.
WARNING: Node X1:X3:X3:N001 is floating.
WARNING: Node X1:X3:X3:N002 is floating.
WARNING: Node X1:X3:X4:N001 is floating.
WARNING: Node X1:X3:X4:N002 is floating.
WARNING: Node X1:X3:X8:N001 is floating.
WARNING: Node X1:X3:X11:N001 is floating.
WARNING: Node X1:X3:X11:N002 is floating.
WARNING: Node X1:X3:X12:N001 is floating.
WARNING: Node X1:X3:X12:N002 is floating.
WARNING: Node X1:X3:X13:N001 is floating.
WARNING: Node X1:X3:X13:N002 is floating.
WARNING: Node X1:X3:X17:N001 is floating.
WARNING: Node X1:X3:X18:N001 is floating.

WARNING: Less than two connections to node SEL.  This node is used by VSEL.
WARNING: Less than two connections to node X1:X1:X3:N001.  This node is used by M:X1:X1:X3:3.
WARNING: Less than two connections to node X1:X1:X3:N002.  This node is used by M:X1:X1:X3:4.
WARNING: Less than two connections to node X1:X1:X4:N001.  This node is used by M:X1:X1:X4:3.
WARNING: Less than two connections to node X1:X1:X4:N002.  This node is used by M:X1:X1:X4:4.
WARNING: Less than two connections to node X1:X1:X11:N001.  This node is used by M:X1:X1:X11:3.
WARNING: Less than two connections to node X1:X1:X11:N002.  This node is used by M:X1:X1:X11:4.
WARNING: Less than two connections to node X1:X1:X12:N001.  This node is used by M:X1:X1:X12:3.
WARNING: Less than two connections to node X1:X1:X12:N002.  This node is used by M:X1:X1:X12:4.
WARNING: Less than two connections to node X1:X1:X13:N001.  This node is used by M:X1:X1:X13:3.
WARNING: Less than two connections to node X1:X1:X13:N002.  This node is used by M:X1:X1:X13:4.
WARNING: Less than two connections to node X1:X2:X3:N001.  This node is used by M:X1:X2:X3:3.
WARNING: Less than two connections to node X1:X2:X3:N002.  This node is used by M:X1:X2:X3:4.
WARNING: Less than two connections to node X1:X2:X4:N001.  This node is used by M:X1:X2:X4:3.
WARNING: Less than two connections to node X1:X2:X4:N002.  This node is used by M:X1:X2:X4:4.
WARNING: Less than two connections to node X1:X2:X11:N001.  This node is used by M:X1:X2:X11:3.
WARNING: Less than two connections to node X1:X2:X11:N002.  This node is used by M:X1:X2:X11:4.
WARNING: Less than two connections to node X1:X2:X12:N001.  This node is used by M:X1:X2:X12:3.
WARNING: Less than two connections to node X1:X2:X12:N002.  This node is used by M:X1:X2:X12:4.
WARNING: Less than two connections to node X1:X2:X13:N001.  This node is used by M:X1:X2:X13:3.
WARNING: Less than two connections to node X1:X2:X13:N002.  This node is used by M:X1:X2:X13:4.
WARNING: Less than two connections to node X1:X3:X3:N001.  This node is used by M:X1:X3:X3:3.
WARNING: Less than two connections to node X1:X3:X3:N002.  This node is used by M:X1:X3:X3:4.
WARNING: Less than two connections to node X1:X3:X4:N001.  This node is used by M:X1:X3:X4:3.
WARNING: Less than two connections to node X1:X3:X4:N002.  This node is used by M:X1:X3:X4:4.
WARNING: Less than two connections to node X1:X3:X11:N001.  This node is used by M:X1:X3:X11:3.
WARNING: Less than two connections to node X1:X3:X11:N002.  This node is used by M:X1:X3:X11:4.
WARNING: Less than two connections to node X1:X3:X12:N001.  This node is used by M:X1:X3:X12:3.
WARNING: Less than two connections to node X1:X3:X12:N002.  This node is used by M:X1:X3:X12:4.
WARNING: Less than two connections to node X1:X3:X13:N001.  This node is used by M:X1:X3:X13:3.
WARNING: Less than two connections to node X1:X3:X13:N002.  This node is used by M:X1:X3:X13:4.

Date: Tue Jun 07 09:47:14 2022
Total elapsed time: 0.185 seconds.

tnom = 27
temp = 27
method = trap
totiter = 262
traniter = 0
tranpoints = 0
accept = 0
rejected = 0
matrix size = 181
fillins = 210
solver = Normal

