Circuit: * C:\Users\Yan\Documents\GitHub\S4_APP3\En cours\add3b_test.asc

WARNING: Node X1:X1:X11:N001 is floating.
WARNING: Node X1:X1:X11:N002 is floating.
WARNING: Node X1:X1:X12:N001 is floating.
WARNING: Node X1:X1:X12:N002 is floating.
WARNING: Node X1:X1:X13:N001 is floating.
WARNING: Node X1:X1:X13:N002 is floating.
WARNING: Node X1:X1:X17:N001 is floating.
WARNING: Node X1:X1:X18:N001 is floating.
WARNING: Node X1:X2:X11:N001 is floating.
WARNING: Node X1:X2:X11:N002 is floating.
WARNING: Node X1:X2:X12:N001 is floating.
WARNING: Node X1:X2:X12:N002 is floating.
WARNING: Node X1:X2:X13:N001 is floating.
WARNING: Node X1:X2:X13:N002 is floating.
WARNING: Node X1:X2:X17:N001 is floating.
WARNING: Node X1:X2:X18:N001 is floating.
WARNING: Node X1:X3:X11:N001 is floating.
WARNING: Node X1:X3:X11:N002 is floating.
WARNING: Node X1:X3:X12:N001 is floating.
WARNING: Node X1:X3:X12:N002 is floating.
WARNING: Node X1:X3:X13:N001 is floating.
WARNING: Node X1:X3:X13:N002 is floating.
WARNING: Node X1:X3:X17:N001 is floating.
WARNING: Node X1:X3:X18:N001 is floating.

WARNING: Less than two connections to node SEL.  This node is used by VSEL.
WARNING: Less than two connections to node X1:X1:X11:N001.  This node is used by M:X1:X1:X11:3.
WARNING: Less than two connections to node X1:X1:X11:N002.  This node is used by M:X1:X1:X11:4.
WARNING: Less than two connections to node X1:X1:X12:N001.  This node is used by M:X1:X1:X12:3.
WARNING: Less than two connections to node X1:X1:X12:N002.  This node is used by M:X1:X1:X12:4.
WARNING: Less than two connections to node X1:X1:X13:N001.  This node is used by M:X1:X1:X13:3.
WARNING: Less than two connections to node X1:X1:X13:N002.  This node is used by M:X1:X1:X13:4.
WARNING: Less than two connections to node X1:X1:X17:N001.  This node is used by M:X1:X1:X17:1.
WARNING: Less than two connections to node X1:X1:X18:N001.  This node is used by M:X1:X1:X18:1.
WARNING: Less than two connections to node X1:X2:X11:N001.  This node is used by M:X1:X2:X11:3.
WARNING: Less than two connections to node X1:X2:X11:N002.  This node is used by M:X1:X2:X11:4.
WARNING: Less than two connections to node X1:X2:X12:N001.  This node is used by M:X1:X2:X12:3.
WARNING: Less than two connections to node X1:X2:X12:N002.  This node is used by M:X1:X2:X12:4.
WARNING: Less than two connections to node X1:X2:X13:N001.  This node is used by M:X1:X2:X13:3.
WARNING: Less than two connections to node X1:X2:X13:N002.  This node is used by M:X1:X2:X13:4.
WARNING: Less than two connections to node X1:X2:X17:N001.  This node is used by M:X1:X2:X17:1.
WARNING: Less than two connections to node X1:X2:X18:N001.  This node is used by M:X1:X2:X18:1.
WARNING: Less than two connections to node X1:X3:X11:N001.  This node is used by M:X1:X3:X11:3.
WARNING: Less than two connections to node X1:X3:X11:N002.  This node is used by M:X1:X3:X11:4.
WARNING: Less than two connections to node X1:X3:X12:N001.  This node is used by M:X1:X3:X12:3.
WARNING: Less than two connections to node X1:X3:X12:N002.  This node is used by M:X1:X3:X12:4.
WARNING: Less than two connections to node X1:X3:X13:N001.  This node is used by M:X1:X3:X13:3.
WARNING: Less than two connections to node X1:X3:X13:N002.  This node is used by M:X1:X3:X13:4.
WARNING: Less than two connections to node X1:X3:X17:N001.  This node is used by M:X1:X3:X17:1.
WARNING: Less than two connections to node X1:X3:X18:N001.  This node is used by M:X1:X3:X18:1.
Direct Newton iteration for .op point succeeded.

Date: Wed Jun 08 15:16:09 2022
Total elapsed time: 1.176 seconds.

tnom = 27
temp = 27
method = modified trap
totiter = 7133
traniter = 7095
tranpoints = 2734
accept = 2498
rejected = 236
matrix size = 133
fillins = 192
solver = Normal
Thread vector: 242.5/107.1[12] 42.1/17.6[12] 15.3/7.3[12] 1.3/3.3[1]  2592/500
Matrix Compiler1: 24.82 KB object code size  9.6/5.4/[2.6]
Matrix Compiler2: 19.50 KB object code size  4.7/5.9/[2.2]

