Circuit: * C:\Users\veron\OneDrive\Documents\GitHub\S4_APP3\En cours\alu_test_trans.asc

WARNING: Node X1:X1:X1:X11:N001 is floating.
WARNING: Node X1:X1:X1:X11:N002 is floating.
WARNING: Node X1:X1:X1:X12:N001 is floating.
WARNING: Node X1:X1:X1:X12:N002 is floating.
WARNING: Node X1:X1:X1:X13:N001 is floating.
WARNING: Node X1:X1:X1:X13:N002 is floating.
WARNING: Node X1:X1:X1:X17:N001 is floating.
WARNING: Node X1:X1:X1:X18:N001 is floating.
WARNING: Node X1:X1:X2:X11:N001 is floating.
WARNING: Node X1:X1:X2:X11:N002 is floating.
WARNING: Node X1:X1:X2:X12:N001 is floating.
WARNING: Node X1:X1:X2:X12:N002 is floating.
WARNING: Node X1:X1:X2:X13:N001 is floating.
WARNING: Node X1:X1:X2:X13:N002 is floating.
WARNING: Node X1:X1:X2:X17:N001 is floating.
WARNING: Node X1:X1:X2:X18:N001 is floating.
WARNING: Node X1:X1:X3:X11:N001 is floating.
WARNING: Node X1:X1:X3:X11:N002 is floating.
WARNING: Node X1:X1:X3:X12:N001 is floating.
WARNING: Node X1:X1:X3:X12:N002 is floating.
WARNING: Node X1:X1:X3:X13:N001 is floating.
WARNING: Node X1:X1:X3:X13:N002 is floating.
WARNING: Node X1:X1:X3:X17:N001 is floating.
WARNING: Node X1:X1:X3:X18:N001 is floating.
WARNING: Node X1:X2:X1:N001 is floating.
WARNING: Node X1:X2:X1:N002 is floating.
WARNING: Node X1:X2:X2:N001 is floating.
WARNING: Node X1:X2:X2:N002 is floating.
WARNING: Node X1:X2:X3:N001 is floating.
WARNING: Node X1:X2:X3:N002 is floating.

WARNING: Less than two connections to node X1:X1:X1:X11:N001.  This node is used by M:X1:X1:X1:X11:3.
WARNING: Less than two connections to node X1:X1:X1:X11:N002.  This node is used by M:X1:X1:X1:X11:4.
WARNING: Less than two connections to node X1:X1:X1:X12:N001.  This node is used by M:X1:X1:X1:X12:3.
WARNING: Less than two connections to node X1:X1:X1:X12:N002.  This node is used by M:X1:X1:X1:X12:4.
WARNING: Less than two connections to node X1:X1:X1:X13:N001.  This node is used by M:X1:X1:X1:X13:3.
WARNING: Less than two connections to node X1:X1:X1:X13:N002.  This node is used by M:X1:X1:X1:X13:4.
WARNING: Less than two connections to node X1:X1:X1:X17:N001.  This node is used by M:X1:X1:X1:X17:1.
WARNING: Less than two connections to node X1:X1:X1:X18:N001.  This node is used by M:X1:X1:X1:X18:1.
WARNING: Less than two connections to node X1:X1:X2:X11:N001.  This node is used by M:X1:X1:X2:X11:3.
WARNING: Less than two connections to node X1:X1:X2:X11:N002.  This node is used by M:X1:X1:X2:X11:4.
WARNING: Less than two connections to node X1:X1:X2:X12:N001.  This node is used by M:X1:X1:X2:X12:3.
WARNING: Less than two connections to node X1:X1:X2:X12:N002.  This node is used by M:X1:X1:X2:X12:4.
WARNING: Less than two connections to node X1:X1:X2:X13:N001.  This node is used by M:X1:X1:X2:X13:3.
WARNING: Less than two connections to node X1:X1:X2:X13:N002.  This node is used by M:X1:X1:X2:X13:4.
WARNING: Less than two connections to node X1:X1:X2:X17:N001.  This node is used by M:X1:X1:X2:X17:1.
WARNING: Less than two connections to node X1:X1:X2:X18:N001.  This node is used by M:X1:X1:X2:X18:1.
WARNING: Less than two connections to node X1:X1:X3:X11:N001.  This node is used by M:X1:X1:X3:X11:3.
WARNING: Less than two connections to node X1:X1:X3:X11:N002.  This node is used by M:X1:X1:X3:X11:4.
WARNING: Less than two connections to node X1:X1:X3:X12:N001.  This node is used by M:X1:X1:X3:X12:3.
WARNING: Less than two connections to node X1:X1:X3:X12:N002.  This node is used by M:X1:X1:X3:X12:4.
WARNING: Less than two connections to node X1:X1:X3:X13:N001.  This node is used by M:X1:X1:X3:X13:3.
WARNING: Less than two connections to node X1:X1:X3:X13:N002.  This node is used by M:X1:X1:X3:X13:4.
WARNING: Less than two connections to node X1:X1:X3:X17:N001.  This node is used by M:X1:X1:X3:X17:1.
WARNING: Less than two connections to node X1:X1:X3:X18:N001.  This node is used by M:X1:X1:X3:X18:1.
WARNING: Less than two connections to node X1:X2:X1:N001.  This node is used by M:X1:X2:X1:3.
WARNING: Less than two connections to node X1:X2:X1:N002.  This node is used by M:X1:X2:X1:4.
WARNING: Less than two connections to node X1:X2:X2:N001.  This node is used by M:X1:X2:X2:3.
WARNING: Less than two connections to node X1:X2:X2:N002.  This node is used by M:X1:X2:X2:4.
WARNING: Less than two connections to node X1:X2:X3:N001.  This node is used by M:X1:X2:X3:3.
WARNING: Less than two connections to node X1:X2:X3:N002.  This node is used by M:X1:X2:X3:4.
Direct Newton iteration for .op point succeeded.

Date: Wed Jun 08 11:34:11 2022
Total elapsed time: 3.587 seconds.

tnom = 27
temp = 27
method = modified trap
totiter = 10714
traniter = 10674
tranpoints = 3899
accept = 3094
rejected = 805
matrix size = 204
fillins = 258
solver = Normal
Thread vector: 395.3/185.0[8] 47.7/30.2[8] 14.2/7.0[8] 1.4/10.7[1]  2592/500
Matrix Compiler1: 34.99 KB object code size  10.1/5.0/[3.9]
Matrix Compiler2: 29.09 KB object code size  4.6/5.3/[1.3]

