Circuit: * C:\Users\veron\OneDrive\Documents\GitHub\S4_APP3\En cours\alu_test_trans.asc

WARNING: Node X1:X1:X1:X3:N001 is floating.
WARNING: Node X1:X1:X1:X3:N002 is floating.
WARNING: Node X1:X1:X1:X4:N001 is floating.
WARNING: Node X1:X1:X1:X4:N002 is floating.
WARNING: Node X1:X1:X1:X8:N001 is floating.
WARNING: Node X1:X1:X1:X11:N001 is floating.
WARNING: Node X1:X1:X1:X11:N002 is floating.
WARNING: Node X1:X1:X1:X12:N001 is floating.
WARNING: Node X1:X1:X1:X12:N002 is floating.
WARNING: Node X1:X1:X1:X13:N001 is floating.
WARNING: Node X1:X1:X1:X13:N002 is floating.
WARNING: Node X1:X1:X1:X17:N001 is floating.
WARNING: Node X1:X1:X1:X18:N001 is floating.
WARNING: Node X1:X1:X2:X3:N001 is floating.
WARNING: Node X1:X1:X2:X3:N002 is floating.
WARNING: Node X1:X1:X2:X4:N001 is floating.
WARNING: Node X1:X1:X2:X4:N002 is floating.
WARNING: Node X1:X1:X2:X8:N001 is floating.
WARNING: Node X1:X1:X2:X11:N001 is floating.
WARNING: Node X1:X1:X2:X11:N002 is floating.
WARNING: Node X1:X1:X2:X12:N001 is floating.
WARNING: Node X1:X1:X2:X12:N002 is floating.
WARNING: Node X1:X1:X2:X13:N001 is floating.
WARNING: Node X1:X1:X2:X13:N002 is floating.
WARNING: Node X1:X1:X2:X17:N001 is floating.
WARNING: Node X1:X1:X2:X18:N001 is floating.
WARNING: Node X1:X1:X3:X3:N001 is floating.
WARNING: Node X1:X1:X3:X3:N002 is floating.
WARNING: Node X1:X1:X3:X4:N001 is floating.
WARNING: Node X1:X1:X3:X4:N002 is floating.
WARNING: Node X1:X1:X3:X8:N001 is floating.
WARNING: Node X1:X1:X3:X11:N001 is floating.
WARNING: Node X1:X1:X3:X11:N002 is floating.
WARNING: Node X1:X1:X3:X12:N001 is floating.
WARNING: Node X1:X1:X3:X12:N002 is floating.
WARNING: Node X1:X1:X3:X13:N001 is floating.
WARNING: Node X1:X1:X3:X13:N002 is floating.
WARNING: Node X1:X1:X3:X17:N001 is floating.
WARNING: Node X1:X1:X3:X18:N001 is floating.
WARNING: Node X1:X2:X1:N001 is floating.
WARNING: Node X1:X2:X1:N002 is floating.
WARNING: Node X1:X2:X2:N001 is floating.
WARNING: Node X1:X2:X2:N002 is floating.
WARNING: Node X1:X2:X3:N001 is floating.
WARNING: Node X1:X2:X3:N002 is floating.

WARNING: Less than two connections to node X1:X1:X1:X3:N001.  This node is used by M:X1:X1:X1:X3:3.
WARNING: Less than two connections to node X1:X1:X1:X3:N002.  This node is used by M:X1:X1:X1:X3:4.
WARNING: Less than two connections to node X1:X1:X1:X4:N001.  This node is used by M:X1:X1:X1:X4:3.
WARNING: Less than two connections to node X1:X1:X1:X4:N002.  This node is used by M:X1:X1:X1:X4:4.
WARNING: Less than two connections to node X1:X1:X1:X11:N001.  This node is used by M:X1:X1:X1:X11:3.
WARNING: Less than two connections to node X1:X1:X1:X11:N002.  This node is used by M:X1:X1:X1:X11:4.
WARNING: Less than two connections to node X1:X1:X1:X12:N001.  This node is used by M:X1:X1:X1:X12:3.
WARNING: Less than two connections to node X1:X1:X1:X12:N002.  This node is used by M:X1:X1:X1:X12:4.
WARNING: Less than two connections to node X1:X1:X1:X13:N001.  This node is used by M:X1:X1:X1:X13:3.
WARNING: Less than two connections to node X1:X1:X1:X13:N002.  This node is used by M:X1:X1:X1:X13:4.
WARNING: Less than two connections to node X1:X1:X2:X3:N001.  This node is used by M:X1:X1:X2:X3:3.
WARNING: Less than two connections to node X1:X1:X2:X3:N002.  This node is used by M:X1:X1:X2:X3:4.
WARNING: Less than two connections to node X1:X1:X2:X4:N001.  This node is used by M:X1:X1:X2:X4:3.
WARNING: Less than two connections to node X1:X1:X2:X4:N002.  This node is used by M:X1:X1:X2:X4:4.
WARNING: Less than two connections to node X1:X1:X2:X11:N001.  This node is used by M:X1:X1:X2:X11:3.
WARNING: Less than two connections to node X1:X1:X2:X11:N002.  This node is used by M:X1:X1:X2:X11:4.
WARNING: Less than two connections to node X1:X1:X2:X12:N001.  This node is used by M:X1:X1:X2:X12:3.
WARNING: Less than two connections to node X1:X1:X2:X12:N002.  This node is used by M:X1:X1:X2:X12:4.
WARNING: Less than two connections to node X1:X1:X2:X13:N001.  This node is used by M:X1:X1:X2:X13:3.
WARNING: Less than two connections to node X1:X1:X2:X13:N002.  This node is used by M:X1:X1:X2:X13:4.
WARNING: Less than two connections to node X1:X1:X3:X3:N001.  This node is used by M:X1:X1:X3:X3:3.
WARNING: Less than two connections to node X1:X1:X3:X3:N002.  This node is used by M:X1:X1:X3:X3:4.
WARNING: Less than two connections to node X1:X1:X3:X4:N001.  This node is used by M:X1:X1:X3:X4:3.
WARNING: Less than two connections to node X1:X1:X3:X4:N002.  This node is used by M:X1:X1:X3:X4:4.
WARNING: Less than two connections to node X1:X1:X3:X11:N001.  This node is used by M:X1:X1:X3:X11:3.
WARNING: Less than two connections to node X1:X1:X3:X11:N002.  This node is used by M:X1:X1:X3:X11:4.
WARNING: Less than two connections to node X1:X1:X3:X12:N001.  This node is used by M:X1:X1:X3:X12:3.
WARNING: Less than two connections to node X1:X1:X3:X12:N002.  This node is used by M:X1:X1:X3:X12:4.
WARNING: Less than two connections to node X1:X1:X3:X13:N001.  This node is used by M:X1:X1:X3:X13:3.
WARNING: Less than two connections to node X1:X1:X3:X13:N002.  This node is used by M:X1:X1:X3:X13:4.
WARNING: Less than two connections to node X1:X2:X1:N001.  This node is used by M:X1:X2:X1:3.
WARNING: Less than two connections to node X1:X2:X1:N002.  This node is used by M:X1:X2:X1:4.
WARNING: Less than two connections to node X1:X2:X2:N001.  This node is used by M:X1:X2:X2:3.
WARNING: Less than two connections to node X1:X2:X2:N002.  This node is used by M:X1:X2:X2:4.
WARNING: Less than two connections to node X1:X2:X3:N001.  This node is used by M:X1:X2:X3:3.
WARNING: Less than two connections to node X1:X2:X3:N002.  This node is used by M:X1:X2:X3:4.
Direct Newton iteration for .op point succeeded.

Date: Tue Jun 07 15:51:47 2022
Total elapsed time: 2.209 seconds.

tnom = 27
temp = 27
method = modified trap
totiter = 6901
traniter = 6866
tranpoints = 2501
accept = 2351
rejected = 150
matrix size = 252
fillins = 296
solver = Normal
Thread vector: 341.7/205.8[8] 61.9/37.3[8] 15.8/9.0[8] 1.7/5.6[1]  2592/500
Matrix Compiler1: 42.52 KB object code size  13.5/7.9/[3.8]
Matrix Compiler2: 36.70 KB object code size  7.8/5.2/[1.7]

