Circuit: * C:\Users\veron\OneDrive - USherbrooke\S4\APP3\S4iAPP3_prob_E20\Premier_essai\and3b_test.asc

WARNING: Node X1:X1:N001 is floating.
WARNING: Node X1:X1:N002 is floating.
WARNING: Node X1:X2:N001 is floating.
WARNING: Node X1:X2:N002 is floating.
WARNING: Node X1:X3:N001 is floating.
WARNING: Node X1:X3:N002 is floating.

WARNING: Less than two connections to node SEL.  This node is used by VSEL.
WARNING: Less than two connections to node X1:X1:N001.  This node is used by M:X1:X1:3.
WARNING: Less than two connections to node X1:X1:N002.  This node is used by M:X1:X1:4.
WARNING: Less than two connections to node X1:X2:N001.  This node is used by M:X1:X2:3.
WARNING: Less than two connections to node X1:X2:N002.  This node is used by M:X1:X2:4.
WARNING: Less than two connections to node X1:X3:N001.  This node is used by M:X1:X3:3.
WARNING: Less than two connections to node X1:X3:N002.  This node is used by M:X1:X3:4.

Date: Mon Jun 06 11:10:22 2022
Total elapsed time: 0.116 seconds.

tnom = 27
temp = 27
method = trap
totiter = 147
traniter = 0
tranpoints = 0
accept = 0
rejected = 0
matrix size = 37
fillins = 6
solver = Normal
Matrix Compiler1: 1.91 KB object code size  0.5/0.2/[0.1]
Matrix Compiler2: 3.44 KB object code size  0.2/0.3/[0.1]

