Circuit: * C:\Users\veron\OneDrive\Documents\GitHub\S4_APP3\En cours\and3b_test.asc

WARNING: Node X1:X1:N001 is floating.
WARNING: Node X1:X1:N002 is floating.
WARNING: Node X1:X2:N001 is floating.
WARNING: Node X1:X2:N002 is floating.
WARNING: Node X1:X3:N001 is floating.
WARNING: Node X1:X3:N002 is floating.

WARNING: Less than two connections to node SEL.  This node is used by VSEL.
WARNING: Less than two connections to node X1:X1:N001.  This node is used by M:X1:X1:3.
WARNING: Less than two connections to node X1:X1:N002.  This node is used by M:X1:X1:4.
WARNING: Less than two connections to node X1:X2:N001.  This node is used by M:X1:X2:3.
WARNING: Less than two connections to node X1:X2:N002.  This node is used by M:X1:X2:4.
WARNING: Less than two connections to node X1:X3:N001.  This node is used by M:X1:X3:3.
WARNING: Less than two connections to node X1:X3:N002.  This node is used by M:X1:X3:4.
Direct Newton iteration for .op point succeeded.

Date: Wed Jun 08 12:59:58 2022
Total elapsed time: 0.280 seconds.

tnom = 27
temp = 27
method = modified trap
totiter = 6598
traniter = 6577
tranpoints = 2754
accept = 2492
rejected = 262
matrix size = 37
fillins = 6
solver = Normal
Matrix Compiler1: 1.91 KB object code size  0.7/0.3/[0.2]
Matrix Compiler2: 3.44 KB object code size  0.4/0.6/[0.4]

