Circuit: * C:\Users\Yan\Documents\GitHub\S4_APP3\En cours\and3b_test.asc

WARNING: Node X1:X1:N001 is floating.
WARNING: Node X1:X1:N002 is floating.
WARNING: Node X1:X2:N001 is floating.
WARNING: Node X1:X2:N002 is floating.
WARNING: Node X1:X3:N001 is floating.
WARNING: Node X1:X3:N002 is floating.

WARNING: Less than two connections to node SEL.  This node is used by VSEL.
WARNING: Less than two connections to node X1:X1:N001.  This node is used by M:X1:X1:3.
WARNING: Less than two connections to node X1:X1:N002.  This node is used by M:X1:X1:4.
WARNING: Less than two connections to node X1:X2:N001.  This node is used by M:X1:X2:3.
WARNING: Less than two connections to node X1:X2:N002.  This node is used by M:X1:X2:4.
WARNING: Less than two connections to node X1:X3:N001.  This node is used by M:X1:X3:3.
WARNING: Less than two connections to node X1:X3:N002.  This node is used by M:X1:X3:4.
Direct Newton iteration for .op point succeeded.

Date: Wed Jun 08 15:21:26 2022
Total elapsed time: 0.335 seconds.

tnom = 27
temp = 27
method = modified trap
totiter = 6492
traniter = 6473
tranpoints = 2736
accept = 2497
rejected = 239
matrix size = 37
fillins = 6
solver = Normal
Matrix Compiler1: 1.91 KB object code size  0.6/0.4/[0.2]
Matrix Compiler2: 3.44 KB object code size  0.4/0.6/[0.4]

