Circuit: * C:\Users\veron\OneDrive - USherbrooke\S4\APP3\S4iAPP3_prob_E20\Premier_essai\mux2x3b_test.asc

Direct Newton iteration for .op point succeeded.

Date: Mon Jun 06 11:01:10 2022
Total elapsed time: 0.179 seconds.

tnom = 27
temp = 27
method = modified trap
totiter = 2410
traniter = 2384
tranpoints = 1099
accept = 1081
rejected = 18
matrix size = 46
fillins = 0
solver = Normal
Thread vector: 19.9/14.2[4] 4.8/2.5[4] 3.0/1.4[4] 0.1/0.8[1]  2592/500
Matrix Compiler1: 2.79 KB object code size  0.7/0.9/[0.2]
Matrix Compiler2: 4.64 KB object code size  0.5/0.6/[0.3]

