Circuit: * C:\Users\veron\OneDrive\Documents\GitHub\S4_APP3\En cours\nand_test.asc

WARNING: Node X9:N001 is floating.
WARNING: Node X9:N002 is floating.

WARNING: Less than two connections to node X9:N001.  This node is used by M:X9:3.
WARNING: Less than two connections to node X9:N002.  This node is used by M:X9:4.
Direct Newton iteration for .op point succeeded.

t1: time=3.01018e-009 at 3.01018e-009
t2: time=3.06385e-009 at 3.06385e-009
t3: time=2.07579e-009 at 2.07579e-009
t4: time=2.01337e-009 at 2.01337e-009
transition_up: abs(t2-t1)=5.36693e-011
transition_down: abs(t4-t3)=6.24225e-011

Measurement "ratio" FAIL'ed


Date: Tue Jun 07 14:40:56 2022
Total elapsed time: 0.331 seconds.

tnom = 27
temp = 27
method = modified trap
totiter = 2833
traniter = 2816
tranpoints = 1328
accept = 1245
rejected = 83
matrix size = 10
fillins = 2
solver = Normal
Matrix Compiler1: 588 bytes object code size  0.2/0.1/[0.1]
Matrix Compiler2: 940 bytes object code size  0.1/0.2/[0.1]

