Circuit: * C:\Users\veron\OneDrive\Documents\GitHub\S4_APP3\En cours\nand_test.asc

WARNING: Node X9:N001 is floating.
WARNING: Node X9:N002 is floating.

WARNING: Less than two connections to node X9:N001.  This node is used by M:X9:3.
WARNING: Less than two connections to node X9:N002.  This node is used by M:X9:4.
Direct Newton iteration for .op point succeeded.

t1: time=3.01342e-009 at 3.01342e-009
t2: time=3.09032e-009 at 3.09032e-009
t3: time=2.09008e-009 at 2.09008e-009
t4: time=2.01428e-009 at 2.01428e-009
transition_up: abs(t2-t1)=7.6892e-011
transition_down: abs(t4-t3)=7.58066e-011

Measurement "ratio" FAIL'ed


Date: Wed Jun 08 10:17:07 2022
Total elapsed time: 0.195 seconds.

tnom = 27
temp = 27
method = modified trap
totiter = 2623
traniter = 2607
tranpoints = 1244
accept = 1177
rejected = 67
matrix size = 10
fillins = 2
solver = Normal
Matrix Compiler1:      34 opcodes  0.2/[0.1]/0.3
Matrix Compiler2: 940 bytes object code size  0.1/0.1/[0.1]

