Circuit: * C:\Users\veron\OneDrive - USherbrooke\S4\APP3\S4iAPP3_prob_E20\Premier_essai\nor_test.asc

WARNING: Node X1:N001 is floating.

Direct Newton iteration for .op point succeeded.

t1: time=4.03106e-009 at 4.03106e-009
t2: time=4.14275e-009 at 4.14275e-009
t3: time=1.03619e-009 at 1.03619e-009
t4: time=1.00688e-009 at 1.00688e-009
transition_up: abs(t2-t1)=1.11692e-010
transition_down: abs(t4-t3)=2.93152e-011

Measurement "ratio" FAIL'ed


Date: Sat Jun 04 16:51:23 2022
Total elapsed time: 0.218 seconds.

tnom = 27
temp = 27
method = modified trap
totiter = 2769
traniter = 2752
tranpoints = 1308
accept = 1226
rejected = 82
matrix size = 9
fillins = 0
solver = Normal
Matrix Compiler1: 448 bytes object code size  0.5/0.1/[0.1]
Matrix Compiler2: off  [0.1]/0.2/0.2

