Circuit: * C:\Users\veron\OneDrive\Documents\GitHub\S4_APP3\En cours\nor_test.asc

WARNING: Node X1:N001 is floating.

WARNING: Less than two connections to node X1:N001.  This node is used by M:X1:1.
Direct Newton iteration for .op point succeeded.

t1: time=4.0149e-009 at 4.0149e-009
t2: time=4.09385e-009 at 4.09385e-009
t3: time=1.1035e-009 at 1.1035e-009
t4: time=1.02006e-009 at 1.02006e-009
transition_up: abs(t2-t1)=7.89405e-011
transition_down: abs(t4-t3)=8.34424e-011

Measurement "ratio" FAIL'ed


Date: Wed Jun 08 13:26:21 2022
Total elapsed time: 0.257 seconds.

tnom = 27
temp = 27
method = modified trap
totiter = 2662
traniter = 2646
tranpoints = 1260
accept = 1189
rejected = 71
matrix size = 9
fillins = 0
solver = Normal
Matrix Compiler1: 368 bytes object code size  0.2/0.1/[0.1]
Matrix Compiler2: 743 bytes object code size  0.1/0.1/[0.1]

