Circuit: * C:\Users\veron\OneDrive\Documents\GitHub\S4_APP3\En cours\pad_buffer_test.asc

Direct Newton iteration for .op point succeeded.

Date: Tue Jun 07 18:12:24 2022
Total elapsed time: 0.175 seconds.

tnom = 27
temp = 27
method = modified trap
totiter = 2968
traniter = 2959
tranpoints = 1329
accept = 1198
rejected = 131
matrix size = 12
fillins = 0
solver = Normal
Matrix Compiler1: 824 bytes object code size  0.3/0.1/[0.1]
Matrix Compiler2: 1.02 KB object code size  0.1/0.2/[0.1]

