Circuit: * C:\Users\veron\OneDrive\Documents\GitHub\S4_APP3\En cours\pad_buffer_test.asc

Direct Newton iteration for .op point succeeded.

Date: Tue Jun 07 14:34:54 2022
Total elapsed time: 0.310 seconds.

tnom = 27
temp = 27
method = modified trap
totiter = 3651
traniter = 3641
tranpoints = 1625
accept = 1418
rejected = 207
matrix size = 12
fillins = 0
solver = Normal
Matrix Compiler1: 932 bytes object code size  0.3/0.1/[0.1]
Matrix Compiler2: 1018 bytes object code size  0.1/0.2/[0.1]

