Circuit: * C:\Users\veron\OneDrive - USherbrooke\S4\APP3\S4iAPP3_prob_E20\Premier_essai\xor_test.asc

Direct Newton iteration for .op point succeeded.

t1: time=1.06178e-009 at 1.06178e-009
t2: time=1.36271e-009 at 1.36271e-009
t3: time=2.10325e-009 at 2.10325e-009
t4: time=2.01286e-009 at 2.01286e-009
transition_up: abs(t2-t1)=3.00937e-010
transition_down: abs(t4-t3)=9.03881e-011

Measurement "ratio" FAIL'ed


Date: Mon Jun 06 09:42:25 2022
Total elapsed time: 0.196 seconds.

tnom = 27
temp = 27
method = modified trap
totiter = 2642
traniter = 2624
tranpoints = 1244
accept = 1177
rejected = 67
matrix size = 13
fillins = 0
solver = Normal
Matrix Compiler1: 942 bytes object code size  0.3/0.2/[0.1]
Matrix Compiler2: off  [0.1]/0.2/0.2

