Circuit: * C:\Users\veron\OneDrive\Documents\GitHub\S4_APP3\En cours\xor_test.asc

Direct Newton iteration for .op point succeeded.

t1: time=1.00084e-009 at 1.00084e-009
t2: time=1.1462e-009 at 1.1462e-009
t3: time=1.00254e-009 at 1.00254e-009
t4: time=2.01993e-009 at 2.01993e-009
transition_up: abs(t2-t1)=1.45357e-010
transition_down: abs(t4-t3)=1.01739e-009

Measurement "ratio" FAIL'ed


Date: Tue Jun 07 14:45:29 2022
Total elapsed time: 0.398 seconds.

tnom = 27
temp = 27
method = modified trap
totiter = 2936
traniter = 2911
tranpoints = 1345
accept = 1252
rejected = 93
matrix size = 13
fillins = 0
solver = Normal
Matrix Compiler1: 942 bytes object code size  0.4/0.2/[0.1]
Matrix Compiler2: off  [0.2]/0.2/0.2

